egret/models/tests/pglib_opf_case3_lmbd_acopf_1010.json
{"elements": {"bus": {"1": {"matpower_bustype": "ref", "area": 1.0, "vm": 1.1, "va": 0.0, "base_kv": 240.0, "zone": 1.0, "v_min": 0.9, "v_max": 1.1, "lmp": 38.19982591429972, "qlmp": 6.357100410497098e-11, "pl": 111.1, "ql": 40.4}, "2": {"matpower_bustype": "PV", "area": 1.0, "vm": 0.9261705367803219, "va": 0.12017037479936449, "base_kv": 240.0, "zone": 1.0, "v_min": 0.9, "v_max": 1.1, "lmp": 30.163104297192998, "qlmp": -9.765372692552108e-12, "pl": 111.1, "ql": 40.4}, "3": {"matpower_bustype": "PV", "area": 1.0, "vm": 0.9, "va": -0.30788781187721126, "base_kv": 240.0, "zone": 1.0, "v_min": 0.9, "v_max": 1.1, "lmp": 46.731948247833664, "qlmp": -5.170379133642491e-12, "pl": 95.95, "ql": 50.5}}, "load": {"load_1": {"in_service": true, "p_load": 111.1, "q_load": 40.4, "bus": "1"}, "load_2": {"in_service": true, "p_load": 111.1, "q_load": 40.4, "bus": "2"}, "load_3": {"in_service": true, "p_load": 95.95, "q_load": 50.5, "bus": "3"}}, "generator": {"1": {"bus": "1", "pg": 150.90829962608723, "qg": 55.178373336537035, "vg": 1.0, "mbase": 100.0, "in_service": true, "p_min": 0.0, "p_max": 2000.0, "q_min": -1000.0, "q_max": 1000.0, "generator_type": "thermal", "p_cost": {"data_type": "cost_curve", "cost_curve_type": "polynomial", "values": {"0": 0.0, "1": 5.0, "2": 0.11}}, "startup_cost": 0.0, "shutdown_cost": 0.0}, "2": {"bus": "2", "pg": 170.3712017658076, "qg": -8.447699681880719, "vg": 1.0, "mbase": 100.0, "in_service": true, "p_min": 0.0, "p_max": 2000.0, "q_min": -1000.0, "q_max": 1000.0, "generator_type": "thermal", "p_cost": {"data_type": "cost_curve", "cost_curve_type": "polynomial", "values": {"0": 0.0, "1": 1.2, "2": 0.08500000000000002}}, "startup_cost": 0.0, "shutdown_cost": 0.0}, "3": {"bus": "3", "pg": 0.0, "qg": -3.9307706085180443, "vg": 1.0, "mbase": 100.0, "in_service": true, "p_min": 0.0, "p_max": 0.0, "q_min": -1000.0, "q_max": 1000.0, "generator_type": "thermal", "p_cost": {"data_type": "cost_curve", "cost_curve_type": "polynomial", "values": {"0": 0.0, "1": 0.0, "2": 0.0}}, "startup_cost": 0.0, "shutdown_cost": 0.0}}, "branch": {"1": {"from_bus": "1", "to_bus": "3", "resistance": 0.065, "reactance": 0.62, "charging_susceptance": 0.45, "branch_type": "line", "rating_long_term": 9000.0, "rating_short_term": 9000.0, "rating_emergency": 9000.0, "in_service": true, "angle_diff_min": -30.0, "angle_diff_max": 30.0, "pf": 52.32188325522571, "qf": 10.282219470649219, "pt": -50.09556827441055, "qt": -34.49659948438897, "pfl": 2.2263149808151583, "qfl": -24.214380013739756, "pf_dual": 3819.9825914301114, "qf_dual": 6.3862208976673715e-09}, "2": {"from_bus": "3", "to_bus": "2", "resistance": 0.025, "reactance": 0.75, "charging_susceptance": 0.7, "branch_type": "line", "rating_long_term": 50.0, "rating_short_term": 50.0, "rating_emergency": 50.0, "in_service": true, "angle_diff_min": -30.0, "angle_diff_max": 30.0, "pf": -45.854431725589464, "qf": -19.934171124129072, "pt": 46.525251206441816, "qt": -18.313959103259435, "pfl": 0.6708194808523527, "qfl": -38.24813022738851, "pf_dual": 4240.767598961775, "qf_dual": -187.98789517836153}, "3": {"from_bus": "1", "to_bus": "2", "resistance": 0.042, "reactance": 0.9, "charging_susceptance": 0.3, "branch_type": "line", "rating_long_term": 9000.0, "rating_short_term": 9000.0, "rating_emergency": 9000.0, "in_service": true, "angle_diff_min": -30.0, "angle_diff_max": 30.0, "pf": -12.513583629138477, "qf": 4.496153865887821, "pt": 12.7459505593658, "qt": -30.533740578621284, "pfl": 0.23236693022732346, "qfl": -26.037586712733464, "pf_dual": 3819.9825914299377, "qf_dual": 6.370182183068588e-09}}}, "system": {"model_name": "pglib_opf_case3_lmbd", "mpc_version": "'2'", "baseMVA": 100.0, "reference_bus": "1", "reference_bus_angle": 0.0, "total_cost": 5931.291022059137, "ploss": 3.1295013918948342, "qloss": -88.50009695386173, "mult": 1.01}, "results": {"time": 0.02322697639465332, "#_cons": 36, "#_vars": 23, "termination": "optimal"}}